
#======================================================================
# CRYSTAL DATA
#----------------------------------------------------------------------
data_VESTA_phase_1

_chemical_name_common                  'Si2 Au6'
_cell_length_a                         11.672537
_cell_length_b                         11.672537
_cell_length_c                         4.739346
_cell_angle_alpha                      90.000000
_cell_angle_beta                       90.000000
_cell_angle_gamma                      120.000000
_cell_volume                           559.215960
_space_group_name_H-M_alt              'P 1'
_space_group_IT_number                 1

loop_
_space_group_symop_operation_xyz
   'x, y, z'
   'x, y+1/2, z'
   'x+1/2, y, z'
   'x+1/2, y+1/2, z'

loop_
   _atom_site_label
   _atom_site_occupancy
   _atom_site_fract_x
   _atom_site_fract_y
   _atom_site_fract_z
   _atom_site_adp_type
   _atom_site_U_iso_or_equiv
   _atom_site_type_symbol
   Si0        1.0     0.333333     0.166667     0.250000    Uiso  ? Si
   Si1        1.0     0.166667     0.333333     0.750000    Uiso  ? Si
   Au2        1.0     0.169183     0.084592     0.750000    Uiso  ? Au
   Au3        1.0     0.415408     0.084592     0.750000    Uiso  ? Au
   Au4        1.0     0.415408     0.330817     0.750000    Uiso  ? Au
   Au5        1.0     0.330817     0.415408     0.250000    Uiso  ? Au
   Au6        1.0     0.084592     0.415408     0.250000    Uiso  ? Au
   Au7        1.0     0.084592     0.169183     0.250000    Uiso  ? Au
